Compound_12_i0
     RDKit          3D

 34 38  0  0  0  0  0  0  0  0999 V2000
   24.9628    0.2679   13.7579 N   0  0  0  0  0  0  0  0  0  0  0  0
   24.1847    0.7277   14.8248 C   0  0  0  0  0  0  0  0  0  0  0  0
   23.7462    1.8818   14.8631 O   0  0  0  0  0  0  0  0  0  0  0  0
   25.8655   -0.8345   13.8406 C   0  0  0  0  0  0  0  0  0  0  0  0
   25.5253   -2.0755   13.2896 C   0  0  0  0  0  0  0  0  0  0  0  0
   26.4178   -3.1548   13.3444 C   0  0  0  0  0  0  0  0  0  0  0  0
   27.6762   -3.0138   13.9404 C   0  0  0  0  0  0  0  0  0  0  0  0
   28.0183   -1.7670   14.4789 C   0  0  0  0  0  0  0  0  0  0  0  0
   27.1277   -0.6886   14.4262 C   0  0  0  0  0  0  0  0  0  0  0  0
   28.6314   -4.1094   14.0129 C   0  0  0  0  0  0  0  0  0  0  0  0
   28.5052   -5.3610   13.4477 C   0  0  0  0  0  0  0  0  0  0  0  0
   29.6546   -6.0264   13.7818 N   0  0  0  0  0  0  0  0  0  0  0  0
   30.4230   -5.1763   14.5220 C   0  0  0  0  0  0  0  0  0  0  0  0
   29.8351   -4.0135   14.6786 N   0  0  0  0  0  0  0  0  0  0  0  0
   25.0655    1.1393   12.5782 C   0  0  0  0  0  0  0  0  0  0  0  0
   27.7461    4.1194   15.3840 F   0  0  0  0  0  0  0  0  0  0  0  0
   26.9517    3.9612   14.3171 C   0  0  0  0  0  0  0  0  0  0  0  0
   26.6361    5.0615   13.5322 C   0  0  0  0  0  0  0  0  0  0  0  0
   25.8112    4.8844   12.4268 C   0  0  0  0  0  0  0  0  0  0  0  0
   25.4055    6.2361   11.4421 Cl  0  0  0  0  0  0  0  0  0  0  0  0
   25.3087    3.6201   12.1092 C   0  0  0  0  0  0  0  0  0  0  0  0
   25.6302    2.5065   12.9026 C   0  0  0  0  0  0  0  0  0  0  0  0
   26.4598    2.6934   14.0171 C   0  0  0  0  0  0  0  0  0  0  0  0
   23.8078   -0.2650   15.9246 C   0  0  0  0  0  0  0  0  0  0  0  0
   23.2596    0.4299   17.1517 C   0  0  0  0  0  0  0  0  0  0  0  0
   21.9321    0.1995   17.5147 C   0  0  0  0  0  0  0  0  0  0  0  0
   21.3226    0.7570   18.5800 N   0  0  0  0  0  0  0  0  0  0  0  0
   22.0810    1.5704   19.3450 C   0  0  0  0  0  0  0  0  0  0  0  0
   23.4239    1.8653   19.1055 C   0  0  0  0  0  0  0  0  0  0  0  0
   24.1519    2.7180   19.9552 C   0  0  0  0  0  0  0  0  0  0  0  0
   25.4925    2.9986   19.7014 C   0  0  0  0  0  0  0  0  0  0  0  0
   26.1177    2.4305   18.5986 C   0  0  0  0  0  0  0  0  0  0  0  0
   25.4030    1.5819   17.7481 C   0  0  0  0  0  0  0  0  0  0  0  0
   24.0400    1.2792   17.9774 C   0  0  0  0  0  0  0  0  0  0  0  0
 16 17  1  0
 17 18  2  0
 18 19  1  0
 19 20  1  0
 19 21  2  0
 21 22  1  0
 22 15  1  0
 15  1  1  0
  1  2  1  0
  2  3  2  0
  2 24  1  0
 24 25  1  0
 25 26  2  0
 26 27  1  0
 27 28  2  0
 28 29  1  0
 29 30  2  0
 30 31  1  0
 31 32  2  0
 32 33  1  0
 33 34  2  0
  1  4  1  0
  4  5  2  0
  5  6  1  0
  6  7  2  0
  7  8  1  0
  8  9  2  0
  7 10  1  0
 10 11  2  0
 11 12  1  0
 12 13  1  0
 13 14  2  0
 22 23  2  0
 23 17  1  0
 34 25  1  0
  9  4  1  0
 14 10  1  0
 34 29  1  0
M  END
>  <minimizedAffinity>  (1) 
-9.14787

>  <CNNscore>  (1) 
0.764619

>  <CNNaffinity>  (1) 
7.065591

>  <CNN_VS>  (1) 
5.402487

>  <CNNaffinity_variance>  (1) 
0.458909

$$$$
Compound_12_i0
     RDKit          3D

 34 38  0  0  0  0  0  0  0  0999 V2000
   24.9475   -2.1365   15.2172 N   0  0  0  0  0  0  0  0  0  0  0  0
   24.3836   -1.1111   15.9827 C   0  0  0  0  0  0  0  0  0  0  0  0
   23.9249   -0.0874   15.4658 O   0  0  0  0  0  0  0  0  0  0  0  0
   25.8834   -3.0900   15.7191 C   0  0  0  0  0  0  0  0  0  0  0  0
   25.4832   -4.4028   15.9946 C   0  0  0  0  0  0  0  0  0  0  0  0
   26.4030   -5.3509   16.4629 C   0  0  0  0  0  0  0  0  0  0  0  0
   27.7471   -5.0108   16.6543 C   0  0  0  0  0  0  0  0  0  0  0  0
   28.1465   -3.7001   16.3651 C   0  0  0  0  0  0  0  0  0  0  0  0
   27.2290   -2.7517   15.8987 C   0  0  0  0  0  0  0  0  0  0  0  0
   28.7324   -5.9682   17.1348 C   0  0  0  0  0  0  0  0  0  0  0  0
   29.9051   -6.3380   16.5107 C   0  0  0  0  0  0  0  0  0  0  0  0
   30.4902   -7.2484   17.3501 N   0  0  0  0  0  0  0  0  0  0  0  0
   29.6718   -7.3978   18.4313 C   0  0  0  0  0  0  0  0  0  0  0  0
   28.6050   -6.6399   18.3322 N   0  0  0  0  0  0  0  0  0  0  0  0
   24.7844   -2.0518   13.7585 C   0  0  0  0  0  0  0  0  0  0  0  0
   29.1408   -0.0340   12.8152 F   0  0  0  0  0  0  0  0  0  0  0  0
   27.8077    0.0140   12.6923 C   0  0  0  0  0  0  0  0  0  0  0  0
   27.2231    1.0709   12.0087 C   0  0  0  0  0  0  0  0  0  0  0  0
   25.8384    1.1091   11.8869 C   0  0  0  0  0  0  0  0  0  0  0  0
   25.0935    2.4123   11.0455 Cl  0  0  0  0  0  0  0  0  0  0  0  0
   25.0473    0.1001   12.4418 C   0  0  0  0  0  0  0  0  0  0  0  0
   25.6396   -0.9705   13.1317 C   0  0  0  0  0  0  0  0  0  0  0  0
   27.0359   -1.0005   13.2529 C   0  0  0  0  0  0  0  0  0  0  0  0
   24.2661   -1.3180   17.4928 C   0  0  0  0  0  0  0  0  0  0  0  0
   23.4592   -0.2219   18.1538 C   0  0  0  0  0  0  0  0  0  0  0  0
   22.1101   -0.4538   18.4243 C   0  0  0  0  0  0  0  0  0  0  0  0
   21.2820    0.4376   19.0046 N   0  0  0  0  0  0  0  0  0  0  0  0
   21.8299    1.6186   19.3613 C   0  0  0  0  0  0  0  0  0  0  0  0
   23.1674    1.9668   19.1682 C   0  0  0  0  0  0  0  0  0  0  0  0
   23.6675    3.2170   19.5756 C   0  0  0  0  0  0  0  0  0  0  0  0
   25.0064    3.5458   19.3768 C   0  0  0  0  0  0  0  0  0  0  0  0
   25.8573    2.6299   18.7709 C   0  0  0  0  0  0  0  0  0  0  0  0
   25.3701    1.3849   18.3625 C   0  0  0  0  0  0  0  0  0  0  0  0
   24.0152    1.0221   18.5481 C   0  0  0  0  0  0  0  0  0  0  0  0
 16 17  1  0
 17 18  2  0
 18 19  1  0
 19 20  1  0
 19 21  2  0
 21 22  1  0
 22 15  1  0
 15  1  1  0
  1  2  1  0
  2  3  2  0
  2 24  1  0
 24 25  1  0
 25 26  2  0
 26 27  1  0
 27 28  2  0
 28 29  1  0
 29 30  2  0
 30 31  1  0
 31 32  2  0
 32 33  1  0
 33 34  2  0
  1  4  1  0
  4  5  2  0
  5  6  1  0
  6  7  2  0
  7  8  1  0
  8  9  2  0
  7 10  1  0
 10 11  2  0
 11 12  1  0
 12 13  1  0
 13 14  2  0
 22 23  2  0
 23 17  1  0
 34 25  1  0
  9  4  1  0
 14 10  1  0
 34 29  1  0
M  END
>  <minimizedAffinity>  (2) 
-8.05619

>  <CNNscore>  (2) 
0.735773

>  <CNNaffinity>  (2) 
6.955336

>  <CNN_VS>  (2) 
5.117548

>  <CNNaffinity_variance>  (2) 
0.098386

$$$$
Compound_12_i0
     RDKit          3D

 34 38  0  0  0  0  0  0  0  0999 V2000
   24.9845    0.3591   13.6022 N   0  0  0  0  0  0  0  0  0  0  0  0
   24.2112    0.8043   14.6787 C   0  0  0  0  0  0  0  0  0  0  0  0
   23.7634    1.9543   14.7293 O   0  0  0  0  0  0  0  0  0  0  0  0
   25.8970   -0.7362   13.6691 C   0  0  0  0  0  0  0  0  0  0  0  0
   27.1615   -0.5746   14.2474 C   0  0  0  0  0  0  0  0  0  0  0  0
   28.0523   -1.6526   14.3396 C   0  0  0  0  0  0  0  0  0  0  0  0
   27.6938   -2.9202   13.8671 C   0  0  0  0  0  0  0  0  0  0  0  0
   26.4230   -3.0813   13.3011 C   0  0  0  0  0  0  0  0  0  0  0  0
   25.5327   -2.0055   13.2069 C   0  0  0  0  0  0  0  0  0  0  0  0
   28.5894   -4.0646   13.9490 C   0  0  0  0  0  0  0  0  0  0  0  0
   28.3242   -5.3578   13.5504 C   0  0  0  0  0  0  0  0  0  0  0  0
   29.4688   -6.0607   13.8176 N   0  0  0  0  0  0  0  0  0  0  0  0
   30.3703   -5.1908   14.3575 C   0  0  0  0  0  0  0  0  0  0  0  0
   29.8714   -3.9804   14.4494 N   0  0  0  0  0  0  0  0  0  0  0  0
   25.0700    1.2401   12.4282 C   0  0  0  0  0  0  0  0  0  0  0  0
   25.2743    6.0499   11.5540 F   0  0  0  0  0  0  0  0  0  0  0  0
   25.6514    5.0073   12.3059 C   0  0  0  0  0  0  0  0  0  0  0  0
   26.5053    5.2143   13.3803 C   0  0  0  0  0  0  0  0  0  0  0  0
   26.8889    4.1243   14.1539 C   0  0  0  0  0  0  0  0  0  0  0  0
   27.9491    4.3589   15.4889 Cl  0  0  0  0  0  0  0  0  0  0  0  0
   26.4222    2.8414   13.8568 C   0  0  0  0  0  0  0  0  0  0  0  0
   25.5563    2.6328   12.7706 C   0  0  0  0  0  0  0  0  0  0  0  0
   25.1765    3.7361   11.9936 C   0  0  0  0  0  0  0  0  0  0  0  0
   23.8518   -0.1998   15.7741 C   0  0  0  0  0  0  0  0  0  0  0  0
   23.3132    0.4817   17.0129 C   0  0  0  0  0  0  0  0  0  0  0  0
   21.9808    0.2689   17.3684 C   0  0  0  0  0  0  0  0  0  0  0  0
   21.3787    0.8172   18.4427 N   0  0  0  0  0  0  0  0  0  0  0  0
   22.1499    1.6018   19.2248 C   0  0  0  0  0  0  0  0  0  0  0  0
   23.4986    1.8765   18.9940 C   0  0  0  0  0  0  0  0  0  0  0  0
   24.2398    2.6994   19.8615 C   0  0  0  0  0  0  0  0  0  0  0  0
   25.5860    2.9601   19.6162 C   0  0  0  0  0  0  0  0  0  0  0  0
   26.2037    2.4016   18.5042 C   0  0  0  0  0  0  0  0  0  0  0  0
   25.4758    1.5826   17.6361 C   0  0  0  0  0  0  0  0  0  0  0  0
   24.1069    1.3007   17.8564 C   0  0  0  0  0  0  0  0  0  0  0  0
 16 17  1  0
 17 18  2  0
 18 19  1  0
 19 20  1  0
 19 21  2  0
 21 22  1  0
 22 15  1  0
 15  1  1  0
  1  2  1  0
  2  3  2  0
  2 24  1  0
 24 25  1  0
 25 26  2  0
 26 27  1  0
 27 28  2  0
 28 29  1  0
 29 30  2  0
 30 31  1  0
 31 32  2  0
 32 33  1  0
 33 34  2  0
  1  4  1  0
  4  5  2  0
  5  6  1  0
  6  7  2  0
  7  8  1  0
  8  9  2  0
  7 10  1  0
 10 11  2  0
 11 12  1  0
 12 13  1  0
 13 14  2  0
 22 23  2  0
 23 17  1  0
 34 25  1  0
  9  4  1  0
 14 10  1  0
 34 29  1  0
M  END
>  <minimizedAffinity>  (3) 
-9.34157

>  <CNNscore>  (3) 
0.615528

>  <CNNaffinity>  (3) 
6.917796

>  <CNN_VS>  (3) 
4.258097

>  <CNNaffinity_variance>  (3) 
0.597606

$$$$
Compound_12_i0
     RDKit          3D

 34 38  0  0  0  0  0  0  0  0999 V2000
   24.3191   -1.1875   15.4899 N   0  0  0  0  0  0  0  0  0  0  0  0
   23.8021   -0.2081   16.3435 C   0  0  0  0  0  0  0  0  0  0  0  0
   23.1146    0.7277   15.9225 O   0  0  0  0  0  0  0  0  0  0  0  0
   25.4564   -1.9952   15.7919 C   0  0  0  0  0  0  0  0  0  0  0  0
   25.3145   -3.3706   16.0103 C   0  0  0  0  0  0  0  0  0  0  0  0
   26.4306   -4.1738   16.2817 C   0  0  0  0  0  0  0  0  0  0  0  0
   27.7158   -3.6217   16.3281 C   0  0  0  0  0  0  0  0  0  0  0  0
   27.8554   -2.2476   16.0961 C   0  0  0  0  0  0  0  0  0  0  0  0
   26.7418   -1.4439   15.8264 C   0  0  0  0  0  0  0  0  0  0  0  0
   28.8990   -4.4235   16.6025 C   0  0  0  0  0  0  0  0  0  0  0  0
   28.9341   -5.7351   17.0269 C   0  0  0  0  0  0  0  0  0  0  0  0
   30.2638   -6.0455   17.1331 N   0  0  0  0  0  0  0  0  0  0  0  0
   30.9756   -4.9372   16.7780 C   0  0  0  0  0  0  0  0  0  0  0  0
   30.1828   -3.9434   16.4525 N   0  0  0  0  0  0  0  0  0  0  0  0
   23.8403   -1.1863   14.0998 C   0  0  0  0  0  0  0  0  0  0  0  0
   24.9572    0.7868    9.7640 F   0  0  0  0  0  0  0  0  0  0  0  0
   25.0232    0.8507   11.1004 C   0  0  0  0  0  0  0  0  0  0  0  0
   25.6920    1.9083   11.7008 C   0  0  0  0  0  0  0  0  0  0  0  0
   25.7529    1.9640   13.0889 C   0  0  0  0  0  0  0  0  0  0  0  0
   26.5796    3.2655   13.8531 Cl  0  0  0  0  0  0  0  0  0  0  0  0
   25.1500    0.9734   13.8680 C   0  0  0  0  0  0  0  0  0  0  0  0
   24.4714   -0.0956   13.2599 C   0  0  0  0  0  0  0  0  0  0  0  0
   24.4169   -0.1466   11.8600 C   0  0  0  0  0  0  0  0  0  0  0  0
   24.0361   -0.3630   17.8462 C   0  0  0  0  0  0  0  0  0  0  0  0
   24.0599    0.9726   18.5567 C   0  0  0  0  0  0  0  0  0  0  0  0
   23.0241    1.2800   19.4397 C   0  0  0  0  0  0  0  0  0  0  0  0
   22.9252    2.4329   20.1312 N   0  0  0  0  0  0  0  0  0  0  0  0
   23.9252    3.3226   19.9567 C   0  0  0  0  0  0  0  0  0  0  0  0
   25.0271    3.1289   19.1225 C   0  0  0  0  0  0  0  0  0  0  0  0
   26.0356    4.1019   18.9993 C   0  0  0  0  0  0  0  0  0  0  0  0
   27.1296    3.8895   18.1636 C   0  0  0  0  0  0  0  0  0  0  0  0
   27.2267    2.7047   17.4447 C   0  0  0  0  0  0  0  0  0  0  0  0
   26.2297    1.7316   17.5601 C   0  0  0  0  0  0  0  0  0  0  0  0
   25.1054    1.9183   18.3985 C   0  0  0  0  0  0  0  0  0  0  0  0
 16 17  1  0
 17 18  2  0
 18 19  1  0
 19 20  1  0
 19 21  2  0
 21 22  1  0
 22 15  1  0
 15  1  1  0
  1  2  1  0
  2  3  2  0
  2 24  1  0
 24 25  1  0
 25 26  2  0
 26 27  1  0
 27 28  2  0
 28 29  1  0
 29 30  2  0
 30 31  1  0
 31 32  2  0
 32 33  1  0
 33 34  2  0
  1  4  1  0
  4  5  2  0
  5  6  1  0
  6  7  2  0
  7  8  1  0
  8  9  2  0
  7 10  1  0
 10 11  2  0
 11 12  1  0
 12 13  1  0
 13 14  2  0
 22 23  2  0
 23 17  1  0
 34 25  1  0
  9  4  1  0
 14 10  1  0
 34 29  1  0
M  END
>  <minimizedAffinity>  (4) 
-7.62329

>  <CNNscore>  (4) 
0.613069

>  <CNNaffinity>  (4) 
6.659876

>  <CNN_VS>  (4) 
4.082965

>  <CNNaffinity_variance>  (4) 
0.090788

$$$$
Compound_12_i0
     RDKit          3D

 34 38  0  0  0  0  0  0  0  0999 V2000
   27.3414   -0.9084   14.7360 N   0  0  0  0  0  0  0  0  0  0  0  0
   27.6457   -2.2557   14.5187 C   0  0  0  0  0  0  0  0  0  0  0  0
   28.2624   -2.6322   13.5169 O   0  0  0  0  0  0  0  0  0  0  0  0
   26.2789   -0.4511   15.5721 C   0  0  0  0  0  0  0  0  0  0  0  0
   26.5470    0.3436   16.6928 C   0  0  0  0  0  0  0  0  0  0  0  0
   25.5062    0.8175   17.5030 C   0  0  0  0  0  0  0  0  0  0  0  0
   24.1723    0.5179   17.2033 C   0  0  0  0  0  0  0  0  0  0  0  0
   23.9071   -0.2665   16.0739 C   0  0  0  0  0  0  0  0  0  0  0  0
   24.9454   -0.7417   15.2645 C   0  0  0  0  0  0  0  0  0  0  0  0
   23.0645    0.9949   18.0177 C   0  0  0  0  0  0  0  0  0  0  0  0
   23.1362    1.5340   19.2850 C   0  0  0  0  0  0  0  0  0  0  0  0
   21.8442    1.8377   19.6227 N   0  0  0  0  0  0  0  0  0  0  0  0
   21.0489    1.4810   18.5733 C   0  0  0  0  0  0  0  0  0  0  0  0
   21.7536    0.9708   17.5907 N   0  0  0  0  0  0  0  0  0  0  0  0
   27.9657    0.0737   13.8374 C   0  0  0  0  0  0  0  0  0  0  0  0
   25.5380    4.2727   13.1939 F   0  0  0  0  0  0  0  0  0  0  0  0
   25.7558    3.0076   12.8111 C   0  0  0  0  0  0  0  0  0  0  0  0
   25.0311    2.4811   11.7510 C   0  0  0  0  0  0  0  0  0  0  0  0
   25.2668    1.1669   11.3624 C   0  0  0  0  0  0  0  0  0  0  0  0
   24.3770    0.4941   10.0521 Cl  0  0  0  0  0  0  0  0  0  0  0  0
   26.2183    0.3884   12.0260 C   0  0  0  0  0  0  0  0  0  0  0  0
   26.9531    0.9224   13.0974 C   0  0  0  0  0  0  0  0  0  0  0  0
   26.7077    2.2471   13.4854 C   0  0  0  0  0  0  0  0  0  0  0  0
   27.2687   -3.2655   15.6028 C   0  0  0  0  0  0  0  0  0  0  0  0
   28.4561   -4.0932   16.0439 C   0  0  0  0  0  0  0  0  0  0  0  0
   28.6319   -5.3611   15.4884 C   0  0  0  0  0  0  0  0  0  0  0  0
   29.6427   -6.1979   15.7968 N   0  0  0  0  0  0  0  0  0  0  0  0
   30.5467   -5.7405   16.6889 C   0  0  0  0  0  0  0  0  0  0  0  0
   30.4990   -4.4865   17.2994 C   0  0  0  0  0  0  0  0  0  0  0  0
   31.4853   -4.0771   18.2152 C   0  0  0  0  0  0  0  0  0  0  0  0
   31.4224   -2.8203   18.8127 C   0  0  0  0  0  0  0  0  0  0  0  0
   30.3757   -1.9617   18.5009 C   0  0  0  0  0  0  0  0  0  0  0  0
   29.3906   -2.3592   17.5921 C   0  0  0  0  0  0  0  0  0  0  0  0
   29.4250   -3.6297   16.9704 C   0  0  0  0  0  0  0  0  0  0  0  0
 16 17  1  0
 17 18  2  0
 18 19  1  0
 19 20  1  0
 19 21  2  0
 21 22  1  0
 22 15  1  0
 15  1  1  0
  1  2  1  0
  2  3  2  0
  2 24  1  0
 24 25  1  0
 25 26  2  0
 26 27  1  0
 27 28  2  0
 28 29  1  0
 29 30  2  0
 30 31  1  0
 31 32  2  0
 32 33  1  0
 33 34  2  0
  1  4  1  0
  4  5  2  0
  5  6  1  0
  6  7  2  0
  7  8  1  0
  8  9  2  0
  7 10  1  0
 10 11  2  0
 11 12  1  0
 12 13  1  0
 13 14  2  0
 22 23  2  0
 23 17  1  0
 34 25  1  0
  9  4  1  0
 14 10  1  0
 34 29  1  0
M  END
>  <minimizedAffinity>  (5) 
-8.09464

>  <CNNscore>  (5) 
0.527292

>  <CNNaffinity>  (5) 
6.999388

>  <CNN_VS>  (5) 
3.690723

>  <CNNaffinity_variance>  (5) 
0.059682

$$$$
Compound_12_i0
     RDKit          3D

 34 38  0  0  0  0  0  0  0  0999 V2000
   24.7089   -0.0543   15.2831 N   0  0  0  0  0  0  0  0  0  0  0  0
   24.7464    1.2243   14.7183 C   0  0  0  0  0  0  0  0  0  0  0  0
   23.7352    1.9277   14.6277 O   0  0  0  0  0  0  0  0  0  0  0  0
   25.6677   -1.0773   15.0160 C   0  0  0  0  0  0  0  0  0  0  0  0
   26.6775   -1.3652   15.9415 C   0  0  0  0  0  0  0  0  0  0  0  0
   27.6063   -2.3860   15.6970 C   0  0  0  0  0  0  0  0  0  0  0  0
   27.5384   -3.1506   14.5268 C   0  0  0  0  0  0  0  0  0  0  0  0
   26.5187   -2.8685   13.6092 C   0  0  0  0  0  0  0  0  0  0  0  0
   25.5912   -1.8486   13.8512 C   0  0  0  0  0  0  0  0  0  0  0  0
   28.4815   -4.2212   14.2395 C   0  0  0  0  0  0  0  0  0  0  0  0
   28.2148   -5.4154   13.6036 C   0  0  0  0  0  0  0  0  0  0  0  0
   29.4127   -6.0779   13.5606 N   0  0  0  0  0  0  0  0  0  0  0  0
   30.3457   -5.2821   14.1584 C   0  0  0  0  0  0  0  0  0  0  0  0
   29.8167   -4.1565   14.5775 N   0  0  0  0  0  0  0  0  0  0  0  0
   23.4662   -0.4521   15.9606 C   0  0  0  0  0  0  0  0  0  0  0  0
   20.4221    1.8655   19.0105 F   0  0  0  0  0  0  0  0  0  0  0  0
   21.6733    1.4975   18.7046 C   0  0  0  0  0  0  0  0  0  0  0  0
   22.7179    1.8728   19.5377 C   0  0  0  0  0  0  0  0  0  0  0  0
   24.0121    1.4839   19.2101 C   0  0  0  0  0  0  0  0  0  0  0  0
   25.3219    1.9411   20.2283 Cl  0  0  0  0  0  0  0  0  0  0  0  0
   24.2585    0.7266   18.0622 C   0  0  0  0  0  0  0  0  0  0  0  0
   23.2007    0.3452   17.2205 C   0  0  0  0  0  0  0  0  0  0  0  0
   21.8990    0.7435   17.5558 C   0  0  0  0  0  0  0  0  0  0  0  0
   26.1014    1.7818   14.2820 C   0  0  0  0  0  0  0  0  0  0  0  0
   25.9585    3.0635   13.4905 C   0  0  0  0  0  0  0  0  0  0  0  0
   25.4259    2.9991   12.2024 C   0  0  0  0  0  0  0  0  0  0  0  0
   25.2491    4.0630   11.3937 N   0  0  0  0  0  0  0  0  0  0  0  0
   25.5968    5.2645   11.9015 C   0  0  0  0  0  0  0  0  0  0  0  0
   26.1182    5.4682   13.1799 C   0  0  0  0  0  0  0  0  0  0  0  0
   26.4494    6.7550   13.6419 C   0  0  0  0  0  0  0  0  0  0  0  0
   26.9664    6.9390   14.9223 C   0  0  0  0  0  0  0  0  0  0  0  0
   27.1563    5.8411   15.7521 C   0  0  0  0  0  0  0  0  0  0  0  0
   26.8302    4.5583   15.3023 C   0  0  0  0  0  0  0  0  0  0  0  0
   26.3057    4.3382   14.0068 C   0  0  0  0  0  0  0  0  0  0  0  0
 16 17  1  0
 17 18  2  0
 18 19  1  0
 19 20  1  0
 19 21  2  0
 21 22  1  0
 22 15  1  0
 15  1  1  0
  1  2  1  0
  2  3  2  0
  2 24  1  0
 24 25  1  0
 25 26  2  0
 26 27  1  0
 27 28  2  0
 28 29  1  0
 29 30  2  0
 30 31  1  0
 31 32  2  0
 32 33  1  0
 33 34  2  0
  1  4  1  0
  4  5  2  0
  5  6  1  0
  6  7  2  0
  7  8  1  0
  8  9  2  0
  7 10  1  0
 10 11  2  0
 11 12  1  0
 12 13  1  0
 13 14  2  0
 22 23  2  0
 23 17  1  0
 34 25  1  0
  9  4  1  0
 14 10  1  0
 34 29  1  0
M  END
>  <minimizedAffinity>  (6) 
-9.34666

>  <CNNscore>  (6) 
0.454894

>  <CNNaffinity>  (6) 
6.811048

>  <CNN_VS>  (6) 
3.098307

>  <CNNaffinity_variance>  (6) 
0.465547

$$$$
Compound_12_i0
     RDKit          3D

 34 38  0  0  0  0  0  0  0  0999 V2000
   26.2610   -1.6380   15.7081 N   0  0  0  0  0  0  0  0  0  0  0  0
   25.1157   -0.8413   15.6149 C   0  0  0  0  0  0  0  0  0  0  0  0
   23.9973   -1.3266   15.4168 O   0  0  0  0  0  0  0  0  0  0  0  0
   27.5871   -1.1668   15.4709 C   0  0  0  0  0  0  0  0  0  0  0  0
   28.4433   -0.8826   16.5413 C   0  0  0  0  0  0  0  0  0  0  0  0
   29.7553   -0.4444   16.3149 C   0  0  0  0  0  0  0  0  0  0  0  0
   30.2448   -0.2926   15.0126 C   0  0  0  0  0  0  0  0  0  0  0  0
   29.3896   -0.5904   13.9444 C   0  0  0  0  0  0  0  0  0  0  0  0
   28.0788   -1.0268   14.1686 C   0  0  0  0  0  0  0  0  0  0  0  0
   31.6018    0.1558   14.7375 C   0  0  0  0  0  0  0  0  0  0  0  0
   32.6331    0.2886   15.6433 C   0  0  0  0  0  0  0  0  0  0  0  0
   33.7039    0.7273   14.9108 N   0  0  0  0  0  0  0  0  0  0  0  0
   33.2965    0.8438   13.6141 C   0  0  0  0  0  0  0  0  0  0  0  0
   32.0357    0.5065   13.4765 N   0  0  0  0  0  0  0  0  0  0  0  0
   26.0621   -3.0932   15.7750 C   0  0  0  0  0  0  0  0  0  0  0  0
   28.6383   -5.4745   12.3644 F   0  0  0  0  0  0  0  0  0  0  0  0
   28.5296   -5.0608   13.6339 C   0  0  0  0  0  0  0  0  0  0  0  0
   29.5307   -5.3756   14.5421 C   0  0  0  0  0  0  0  0  0  0  0  0
   29.4070   -4.9397   15.8568 C   0  0  0  0  0  0  0  0  0  0  0  0
   30.6359   -5.3215   16.9994 Cl  0  0  0  0  0  0  0  0  0  0  0  0
   28.2947   -4.1958   16.2581 C   0  0  0  0  0  0  0  0  0  0  0  0
   27.2828   -3.8756   15.3380 C   0  0  0  0  0  0  0  0  0  0  0  0
   27.4131   -4.3212   14.0151 C   0  0  0  0  0  0  0  0  0  0  0  0
   25.2607    0.6624   15.8497 C   0  0  0  0  0  0  0  0  0  0  0  0
   25.3819    1.4296   14.5513 C   0  0  0  0  0  0  0  0  0  0  0  0
   25.8933    2.7274   14.5857 C   0  0  0  0  0  0  0  0  0  0  0  0
   26.0495    3.5170   13.5043 N   0  0  0  0  0  0  0  0  0  0  0  0
   25.7025    2.9790   12.3159 C   0  0  0  0  0  0  0  0  0  0  0  0
   25.2012    1.6883   12.1419 C   0  0  0  0  0  0  0  0  0  0  0  0
   24.8692    1.1945   10.8671 C   0  0  0  0  0  0  0  0  0  0  0  0
   24.3725   -0.0977   10.7128 C   0  0  0  0  0  0  0  0  0  0  0  0
   24.2038   -0.9080   11.8287 C   0  0  0  0  0  0  0  0  0  0  0  0
   24.5307   -0.4266   13.0998 C   0  0  0  0  0  0  0  0  0  0  0  0
   25.0349    0.8817   13.2897 C   0  0  0  0  0  0  0  0  0  0  0  0
 16 17  1  0
 17 18  2  0
 18 19  1  0
 19 20  1  0
 19 21  2  0
 21 22  1  0
 22 15  1  0
 15  1  1  0
  1  2  1  0
  2  3  2  0
  2 24  1  0
 24 25  1  0
 25 26  2  0
 26 27  1  0
 27 28  2  0
 28 29  1  0
 29 30  2  0
 30 31  1  0
 31 32  2  0
 32 33  1  0
 33 34  2  0
  1  4  1  0
  4  5  2  0
  5  6  1  0
  6  7  2  0
  7  8  1  0
  8  9  2  0
  7 10  1  0
 10 11  2  0
 11 12  1  0
 12 13  1  0
 13 14  2  0
 22 23  2  0
 23 17  1  0
 34 25  1  0
  9  4  1  0
 14 10  1  0
 34 29  1  0
M  END
>  <minimizedAffinity>  (7) 
-7.38937

>  <CNNscore>  (7) 
0.37308

>  <CNNaffinity>  (7) 
6.36681

>  <CNN_VS>  (7) 
2.375332

>  <CNNaffinity_variance>  (7) 
0.261795

$$$$
Compound_12_i0
     RDKit          3D

 34 38  0  0  0  0  0  0  0  0999 V2000
   24.6822    0.0707   15.2015 N   0  0  0  0  0  0  0  0  0  0  0  0
   24.7923    1.3683   14.6924 C   0  0  0  0  0  0  0  0  0  0  0  0
   23.8101    2.1075   14.5712 O   0  0  0  0  0  0  0  0  0  0  0  0
   25.6237   -0.9719   14.9497 C   0  0  0  0  0  0  0  0  0  0  0  0
   26.4186   -1.4780   15.9849 C   0  0  0  0  0  0  0  0  0  0  0  0
   27.3265   -2.5196   15.7499 C   0  0  0  0  0  0  0  0  0  0  0  0
   27.4509   -3.0874   14.4768 C   0  0  0  0  0  0  0  0  0  0  0  0
   26.6446   -2.5874   13.4466 C   0  0  0  0  0  0  0  0  0  0  0  0
   25.7385   -1.5464   13.6793 C   0  0  0  0  0  0  0  0  0  0  0  0
   28.3788   -4.1726   14.1947 C   0  0  0  0  0  0  0  0  0  0  0  0
   28.0649   -5.4418   13.7563 C   0  0  0  0  0  0  0  0  0  0  0  0
   29.2658   -6.0875   13.6275 N   0  0  0  0  0  0  0  0  0  0  0  0
   30.2467   -5.2089   13.9840 C   0  0  0  0  0  0  0  0  0  0  0  0
   29.7452   -4.0466   14.3303 N   0  0  0  0  0  0  0  0  0  0  0  0
   23.3896   -0.3122   15.7881 C   0  0  0  0  0  0  0  0  0  0  0  0
   20.2708    1.7653   18.9341 F   0  0  0  0  0  0  0  0  0  0  0  0
   21.5322    1.4412   18.6202 C   0  0  0  0  0  0  0  0  0  0  0  0
   22.5614    1.7901   19.4834 C   0  0  0  0  0  0  0  0  0  0  0  0
   23.8664    1.4472   19.1470 C   0  0  0  0  0  0  0  0  0  0  0  0
   25.1573    1.8729   20.2022 Cl  0  0  0  0  0  0  0  0  0  0  0  0
   24.1385    0.7615   17.9606 C   0  0  0  0  0  0  0  0  0  0  0  0
   23.0963    0.4066   17.0883 C   0  0  0  0  0  0  0  0  0  0  0  0
   21.7837    0.7584   17.4328 C   0  0  0  0  0  0  0  0  0  0  0  0
   26.1872    1.8978   14.3595 C   0  0  0  0  0  0  0  0  0  0  0  0
   26.9797    2.2294   15.6050 C   0  0  0  0  0  0  0  0  0  0  0  0
   28.1915    1.5726   15.8222 C   0  0  0  0  0  0  0  0  0  0  0  0
   28.9896    1.7731   16.8899 N   0  0  0  0  0  0  0  0  0  0  0  0
   28.5747    2.6979   17.7814 C   0  0  0  0  0  0  0  0  0  0  0  0
   27.3974    3.4390   17.6707 C   0  0  0  0  0  0  0  0  0  0  0  0
   27.0361    4.3934   18.6390 C   0  0  0  0  0  0  0  0  0  0  0  0
   25.8581    5.1257   18.5100 C   0  0  0  0  0  0  0  0  0  0  0  0
   25.0318    4.9124   17.4138 C   0  0  0  0  0  0  0  0  0  0  0  0
   25.3820    3.9663   16.4461 C   0  0  0  0  0  0  0  0  0  0  0  0
   26.5701    3.2051   16.5497 C   0  0  0  0  0  0  0  0  0  0  0  0
 16 17  1  0
 17 18  2  0
 18 19  1  0
 19 20  1  0
 19 21  2  0
 21 22  1  0
 22 15  1  0
 15  1  1  0
  1  2  1  0
  2  3  2  0
  2 24  1  0
 24 25  1  0
 25 26  2  0
 26 27  1  0
 27 28  2  0
 28 29  1  0
 29 30  2  0
 30 31  1  0
 31 32  2  0
 32 33  1  0
 33 34  2  0
  1  4  1  0
  4  5  2  0
  5  6  1  0
  6  7  2  0
  7  8  1  0
  8  9  2  0
  7 10  1  0
 10 11  2  0
 11 12  1  0
 12 13  1  0
 13 14  2  0
 22 23  2  0
 23 17  1  0
 34 25  1  0
  9  4  1  0
 14 10  1  0
 34 29  1  0
M  END
>  <minimizedAffinity>  (8) 
-8.45814

>  <CNNscore>  (8) 
0.364069

>  <CNNaffinity>  (8) 
6.535595

>  <CNN_VS>  (8) 
2.379405

>  <CNNaffinity_variance>  (8) 
0.352349

$$$$
Compound_12_i0
     RDKit          3D

 34 38  0  0  0  0  0  0  0  0999 V2000
   27.2629   -0.9152   14.7777 N   0  0  0  0  0  0  0  0  0  0  0  0
   27.5318   -2.2749   14.5938 C   0  0  0  0  0  0  0  0  0  0  0  0
   28.1491   -2.6907   13.6081 O   0  0  0  0  0  0  0  0  0  0  0  0
   26.2041   -0.4099   15.5906 C   0  0  0  0  0  0  0  0  0  0  0  0
   24.8717   -0.7262   15.3009 C   0  0  0  0  0  0  0  0  0  0  0  0
   23.8292   -0.2547   16.1104 C   0  0  0  0  0  0  0  0  0  0  0  0
   24.0966    0.5335   17.2355 C   0  0  0  0  0  0  0  0  0  0  0  0
   25.4317    0.8369   17.5297 C   0  0  0  0  0  0  0  0  0  0  0  0
   26.4739    0.3680   16.7217 C   0  0  0  0  0  0  0  0  0  0  0  0
   23.0418    1.0380   18.1023 C   0  0  0  0  0  0  0  0  0  0  0  0
   23.1956    1.7964   19.2437 C   0  0  0  0  0  0  0  0  0  0  0  0
   21.9246    2.0294   19.6972 N   0  0  0  0  0  0  0  0  0  0  0  0
   21.0609    1.4185   18.8359 C   0  0  0  0  0  0  0  0  0  0  0  0
   21.7025    0.8131   17.8642 N   0  0  0  0  0  0  0  0  0  0  0  0
   27.9246    0.0288   13.8652 C   0  0  0  0  0  0  0  0  0  0  0  0
   25.6174    4.2957   13.2243 F   0  0  0  0  0  0  0  0  0  0  0  0
   25.8080    3.0287   12.8331 C   0  0  0  0  0  0  0  0  0  0  0  0
   25.0860    2.5308   11.7574 C   0  0  0  0  0  0  0  0  0  0  0  0
   25.2933    1.2144   11.3602 C   0  0  0  0  0  0  0  0  0  0  0  0
   24.4064    0.5768   10.0305 Cl  0  0  0  0  0  0  0  0  0  0  0  0
   26.2139    0.4054   12.0308 C   0  0  0  0  0  0  0  0  0  0  0  0
   26.9459    0.9104   13.1180 C   0  0  0  0  0  0  0  0  0  0  0  0
   26.7293    2.2375   13.5146 C   0  0  0  0  0  0  0  0  0  0  0  0
   27.1144   -3.2493   15.6954 C   0  0  0  0  0  0  0  0  0  0  0  0
   28.2296   -4.2049   16.0592 C   0  0  0  0  0  0  0  0  0  0  0  0
   29.4705   -4.0530   15.4393 C   0  0  0  0  0  0  0  0  0  0  0  0
   30.5424   -4.8368   15.6710 N   0  0  0  0  0  0  0  0  0  0  0  0
   30.3824   -5.8124   16.5901 C   0  0  0  0  0  0  0  0  0  0  0  0
   29.2035   -6.0560   17.2961 C   0  0  0  0  0  0  0  0  0  0  0  0
   29.1165   -7.0891   18.2470 C   0  0  0  0  0  0  0  0  0  0  0  0
   27.9318   -7.3154   18.9439 C   0  0  0  0  0  0  0  0  0  0  0  0
   26.8249   -6.5126   18.6985 C   0  0  0  0  0  0  0  0  0  0  0  0
   26.9012   -5.4834   17.7555 C   0  0  0  0  0  0  0  0  0  0  0  0
   28.0889   -5.2298   17.0298 C   0  0  0  0  0  0  0  0  0  0  0  0
 16 17  1  0
 17 18  2  0
 18 19  1  0
 19 20  1  0
 19 21  2  0
 21 22  1  0
 22 15  1  0
 15  1  1  0
  1  2  1  0
  2  3  2  0
  2 24  1  0
 24 25  1  0
 25 26  2  0
 26 27  1  0
 27 28  2  0
 28 29  1  0
 29 30  2  0
 30 31  1  0
 31 32  2  0
 32 33  1  0
 33 34  2  0
  1  4  1  0
  4  5  2  0
  5  6  1  0
  6  7  2  0
  7  8  1  0
  8  9  2  0
  7 10  1  0
 10 11  2  0
 11 12  1  0
 12 13  1  0
 13 14  2  0
 22 23  2  0
 23 17  1  0
 34 25  1  0
  9  4  1  0
 14 10  1  0
 34 29  1  0
M  END
>  <minimizedAffinity>  (9) 
-8.9383

>  <CNNscore>  (9) 
0.351178

>  <CNNaffinity>  (9) 
6.782375

>  <CNN_VS>  (9) 
2.381822

>  <CNNaffinity_variance>  (9) 
0.155712

$$$$
