"US20240293380
     RDKit          3D

 51 55  0  0  0  0  0  0  0  0999 V2000
    1.1358    6.5384    1.5368 Cl  0  0  0  0  0  0  0  0  0  0  0  0
    0.3186    5.1236    0.9814 C   0  0  0  0  0  0  0  0  0  0  0  0
   -0.6477    5.2245   -0.0184 C   0  0  0  0  0  0  0  0  0  0  0  0
   -1.3099    4.0780   -0.4523 C   0  0  0  0  0  0  0  0  0  0  0  0
   -1.0015    2.8281    0.0987 C   0  0  0  0  0  0  0  0  0  0  0  0
   -0.0189    2.7059    1.0935 C   0  0  0  0  0  0  0  0  0  0  0  0
    0.3420    1.3791    1.7367 C   0  0  0  0  0  0  0  0  0  0  0  0
    0.2173    0.1985    0.8623 N   0  0  0  0  0  0  0  0  0  0  0  0
    1.3414   -0.2822    0.1546 C   0  0  0  0  0  0  0  0  0  0  0  0
    1.4524   -1.4553   -0.2178 O   0  0  0  0  0  0  0  0  0  0  0  0
    2.4939    0.6964   -0.0692 C   0  0  0  0  0  0  0  0  0  0  0  0
    3.2400    0.3737   -1.3172 C   0  0  0  0  0  0  0  0  0  0  0  0
    3.1900    1.0656   -2.4431 N   0  0  0  0  0  0  0  0  0  0  0  0
    4.0510    0.4900   -3.3501 N   0  0  0  0  0  0  0  0  0  0  0  0
    4.6198   -0.5397   -2.7620 C   0  0  0  0  0  0  0  0  0  0  0  0
    5.5910   -1.4824   -3.2034 C   0  0  0  0  0  0  0  0  0  0  0  0
    6.0210   -2.4414   -2.3593 C   0  0  0  0  0  0  0  0  0  0  0  0
    5.5081   -2.5369   -0.9973 C   0  0  0  0  0  0  0  0  0  0  0  0
    4.5847   -1.6507   -0.5791 C   0  0  0  0  0  0  0  0  0  0  0  0
    4.1431   -0.6614   -1.4610 N   0  0  0  0  0  0  0  0  0  0  0  0
   -1.0520   -0.5017    0.7978 C   0  0  0  0  0  0  0  0  0  0  0  0
   -2.0647   -0.3120    1.7516 C   0  0  0  0  0  0  0  0  0  0  0  0
   -3.3118   -0.9498    1.6406 C   0  0  0  0  0  0  0  0  0  0  0  0
   -3.5969   -1.7915    0.5621 C   0  0  0  0  0  0  0  0  0  0  0  0
   -2.6046   -1.9818   -0.4023 C   0  0  0  0  0  0  0  0  0  0  0  0
   -1.3574   -1.3481   -0.2836 C   0  0  0  0  0  0  0  0  0  0  0  0
   -4.8948   -2.4272    0.4193 C   0  0  0  0  0  0  0  0  0  0  0  0
   -5.6126   -2.8089   -0.7390 C   0  0  0  0  0  0  0  0  0  0  0  0
   -6.8024   -3.3470   -0.4574 N   0  0  0  0  0  0  0  0  0  0  0  0
   -6.8516   -3.3141    0.8822 N   0  0  0  0  0  0  0  0  0  0  0  0
   -5.7388   -2.7683    1.4554 C   0  0  0  0  0  0  0  0  0  0  0  0
    0.6300    3.8817    1.5415 C   0  0  0  0  0  0  0  0  0  0  0  0
   -0.8900    6.1891   -0.4581 H   0  0  0  0  0  0  0  0  0  0  0  0
   -2.0677    4.1501   -1.2297 H   0  0  0  0  0  0  0  0  0  0  0  0
   -1.5436    1.9575   -0.2705 H   0  0  0  0  0  0  0  0  0  0  0  0
   -0.2212    1.2591    2.6652 H   0  0  0  0  0  0  0  0  0  0  0  0
    1.3862    1.4281    2.0733 H   0  0  0  0  0  0  0  0  0  0  0  0
    2.1159    1.7161   -0.1736 H   0  0  0  0  0  0  0  0  0  0  0  0
    3.1605    0.6632    0.8007 H   0  0  0  0  0  0  0  0  0  0  0  0
    5.9680   -1.4063   -4.2197 H   0  0  0  0  0  0  0  0  0  0  0  0
    6.7614   -3.1724   -2.6775 H   0  0  0  0  0  0  0  0  0  0  0  0
    5.8788   -3.3278   -0.3530 H   0  0  0  0  0  0  0  0  0  0  0  0
    4.1523   -1.6766    0.4151 H   0  0  0  0  0  0  0  0  0  0  0  0
   -1.9341    0.3160    2.6283 H   0  0  0  0  0  0  0  0  0  0  0  0
   -4.0621   -0.7508    2.4043 H   0  0  0  0  0  0  0  0  0  0  0  0
   -2.7809   -2.6180   -1.2693 H   0  0  0  0  0  0  0  0  0  0  0  0
   -0.6505   -1.5172   -1.0926 H   0  0  0  0  0  0  0  0  0  0  0  0
   -5.3268   -2.6925   -1.7809 H   0  0  0  0  0  0  0  0  0  0  0  0
   -7.6903   -3.6574    1.3446 H   0  0  0  0  0  0  0  0  0  0  0  0
   -5.6577   -2.6774    2.5306 H   0  0  0  0  0  0  0  0  0  0  0  0
    1.3873    3.8341    2.3303 H   0  0  0  0  0  0  0  0  0  0  0  0
  1  2  1  0
  2  3  2  0
  3  4  1  0
  4  5  2  0
  5  6  1  0
  6  7  1  0
  7  8  1  0
  8  9  1  0
  9 10  2  0
  9 11  1  0
 11 12  1  0
 12 13  2  0
 13 14  1  0
 14 15  2  0
 15 16  1  0
 16 17  2  0
 17 18  1  0
 18 19  2  0
 19 20  1  0
  8 21  1  0
 21 22  2  0
 22 23  1  0
 23 24  2  0
 24 25  1  0
 25 26  2  0
 24 27  1  0
 27 28  1  0
 28 29  2  0
 29 30  1  0
 30 31  1  0
  6 32  2  0
 32  2  1  0
 20 12  1  0
 26 21  1  0
 31 27  2  0
 20 15  1  0
  3 33  1  0
  4 34  1  0
  5 35  1  0
  7 36  1  0
  7 37  1  0
 11 38  1  0
 11 39  1  0
 16 40  1  0
 17 41  1  0
 18 42  1  0
 19 43  1  0
 22 44  1  0
 23 45  1  0
 25 46  1  0
 26 47  1  0
 28 48  1  0
 30 49  1  0
 31 50  1  0
 32 51  1  0
M  END
>  <IC50 (nM)>  (1) 
Compound 1"

>  <cluster>  (1) 
365.0

>  <Column_4>  (1) 
1

>  <ScrubInfo>  (1) 
{"isomerGroup": 0, "isomerId": 0, "confId": 0, "nr_conformers:": 1, "nr_isomers:": 1}

$$$$
"US20240293380
     RDKit          3D

 50 53  0  0  0  0  0  0  0  0999 V2000
    4.8382   -1.7217   -0.8696 C   0  0  0  0  0  0  0  0  0  0  0  0
    5.9052   -0.8529   -1.3971 N   0  0  0  0  0  0  0  0  0  0  0  0
    5.1050    0.3372   -1.0576 C   0  0  0  0  0  0  0  0  0  0  0  0
    4.3250   -0.5245   -0.0387 C   0  0  0  0  0  0  0  0  0  0  0  0
    2.7654   -0.2900    0.1358 C   0  0  0  0  0  0  0  0  0  0  0  0
    1.8507   -0.3571   -0.9324 C   0  0  0  0  0  0  0  0  0  0  0  0
    2.2142    0.0236    1.3936 C   0  0  0  0  0  0  0  0  0  0  0  0
    0.4787   -0.1259   -0.7569 C   0  0  0  0  0  0  0  0  0  0  0  0
    0.8449    0.2630    1.5760 C   0  0  0  0  0  0  0  0  0  0  0  0
   -0.0419    0.1825    0.5023 C   0  0  0  0  0  0  0  0  0  0  0  0
   -1.4270    0.4849    0.6729 N   0  0  0  0  0  0  0  0  0  0  0  0
   -1.7655    1.7359    1.3750 C   0  0  0  0  0  0  0  0  0  0  0  0
   -2.4584   -0.1433   -0.0339 C   0  0  0  0  0  0  0  0  0  0  0  0
   -1.3169    2.9673    0.6290 C   0  0  0  0  0  0  0  0  0  0  0  0
   -3.5363    0.4174   -0.2453 O   0  0  0  0  0  0  0  0  0  0  0  0
   -2.2359   -1.5870   -0.4847 C   0  0  0  0  0  0  0  0  0  0  0  0
   -1.9815    3.3942   -0.5203 C   0  0  0  0  0  0  0  0  0  0  0  0
   -0.2027    3.7075    1.0412 C   0  0  0  0  0  0  0  0  0  0  0  0
   -3.4018   -2.4876   -0.1638 C   0  0  0  0  0  0  0  0  0  0  0  0
   -1.6067    4.4661   -1.2599 N   0  0  0  0  0  0  0  0  0  0  0  0
    0.1913    4.8137    0.3021 C   0  0  0  0  0  0  0  0  0  0  0  0
   -4.5629   -2.4696   -0.9367 C   0  0  0  0  0  0  0  0  0  0  0  0
   -3.3686   -3.3606    0.9291 C   0  0  0  0  0  0  0  0  0  0  0  0
   -0.5291    5.1588   -0.8255 C   0  0  0  0  0  0  0  0  0  0  0  0
    1.2648    5.5219    0.6737 F   0  0  0  0  0  0  0  0  0  0  0  0
   -5.6377   -3.2613   -0.7112 N   0  0  0  0  0  0  0  0  0  0  0  0
   -4.4658   -4.1716    1.1850 C   0  0  0  0  0  0  0  0  0  0  0  0
   -5.5658   -4.0957    0.3517 C   0  0  0  0  0  0  0  0  0  0  0  0
   -4.4484   -5.0163    2.2232 F   0  0  0  0  0  0  0  0  0  0  0  0
    4.1756   -2.0825   -1.6630 H   0  0  0  0  0  0  0  0  0  0  0  0
    5.2166   -2.5698   -0.2932 H   0  0  0  0  0  0  0  0  0  0  0  0
    6.7884   -0.9185   -0.8735 H   0  0  0  0  0  0  0  0  0  0  0  0
    6.0924   -0.9671   -2.4011 H   0  0  0  0  0  0  0  0  0  0  0  0
    4.5329    0.7048   -1.9160 H   0  0  0  0  0  0  0  0  0  0  0  0
    5.6981    1.1515   -0.6336 H   0  0  0  0  0  0  0  0  0  0  0  0
    4.8279   -0.5035    0.9423 H   0  0  0  0  0  0  0  0  0  0  0  0
    2.1943   -0.5717   -1.9432 H   0  0  0  0  0  0  0  0  0  0  0  0
    2.8628    0.0914    2.2678 H   0  0  0  0  0  0  0  0  0  0  0  0
   -0.1600   -0.1309   -1.6379 H   0  0  0  0  0  0  0  0  0  0  0  0
    0.4902    0.4853    2.5798 H   0  0  0  0  0  0  0  0  0  0  0  0
   -2.8484    1.7992    1.5407 H   0  0  0  0  0  0  0  0  0  0  0  0
   -1.3318    1.7125    2.3813 H   0  0  0  0  0  0  0  0  0  0  0  0
   -1.3437   -2.0161   -0.0184 H   0  0  0  0  0  0  0  0  0  0  0  0
   -2.0651   -1.5863   -1.5676 H   0  0  0  0  0  0  0  0  0  0  0  0
   -2.8601    2.8712   -0.8946 H   0  0  0  0  0  0  0  0  0  0  0  0
    0.3624    3.4360    1.9266 H   0  0  0  0  0  0  0  0  0  0  0  0
   -4.6695   -1.7957   -1.7843 H   0  0  0  0  0  0  0  0  0  0  0  0
   -2.5060   -3.4215    1.5845 H   0  0  0  0  0  0  0  0  0  0  0  0
   -0.2499    6.0203   -1.4227 H   0  0  0  0  0  0  0  0  0  0  0  0
   -6.4378   -4.7175    0.5242 H   0  0  0  0  0  0  0  0  0  0  0  0
  1  2  1  0
  2  3  1  0
  4  1  1  0
  5  4  1  0
  3  4  1  0
  6  5  2  0
  5  7  1  0
  8  6  1  0
  7  9  2  0
 10  8  2  0
  9 10  1  0
 11 10  1  0
 12 11  1  0
 11 13  1  0
 14 12  1  0
 13 15  2  0
 13 16  1  0
 17 14  2  0
 14 18  1  0
 16 19  1  0
 20 17  1  0
 18 21  2  0
 19 22  2  0
 23 19  1  0
 24 20  2  0
 25 21  1  0
 21 24  1  0
 22 26  1  0
 27 23  2  0
 26 28  2  0
 28 27  1  0
 27 29  1  0
  1 30  1  0
  1 31  1  0
  2 32  1  0
  2 33  1  0
  3 34  1  0
  3 35  1  0
  4 36  1  0
  6 37  1  0
  7 38  1  0
  8 39  1  0
  9 40  1  0
 12 41  1  0
 12 42  1  0
 16 43  1  0
 16 44  1  0
 17 45  1  0
 18 46  1  0
 22 47  1  0
 23 48  1  0
 24 49  1  0
 28 50  1  0
M  CHG  1   2   1
M  END
>  <IC50 (nM)>  (2) 
Compound 83"

>  <cluster>  (2) 
5225.0

>  <Column_4>  (2) 
3

>  <ScrubInfo>  (2) 
{"isomerGroup": 1, "isomerId": 0, "confId": 0, "nr_conformers:": 1, "nr_isomers:": 1}

$$$$
"US20240293380
     RDKit          3D

 52 56  0  0  0  0  0  0  0  0999 V2000
    2.2944    4.0198   -2.0196 Cl  0  0  0  0  0  0  0  0  0  0  0  0
    1.2574    4.0089   -0.6443 C   0  0  0  0  0  0  0  0  0  0  0  0
    0.8321    5.2154   -0.0888 C   0  0  0  0  0  0  0  0  0  0  0  0
   -0.0047    5.2041    1.0255 C   0  0  0  0  0  0  0  0  0  0  0  0
   -0.4146    3.9859    1.5744 C   0  0  0  0  0  0  0  0  0  0  0  0
   -0.0012    2.7599    1.0175 C   0  0  0  0  0  0  0  0  0  0  0  0
   -0.4750    1.4757    1.6711 C   0  0  0  0  0  0  0  0  0  0  0  0
   -0.2464    0.2350    0.9132 N   0  0  0  0  0  0  0  0  0  0  0  0
   -1.3290   -0.3567    0.2254 C   0  0  0  0  0  0  0  0  0  0  0  0
   -1.4396   -1.5702    0.0335 O   0  0  0  0  0  0  0  0  0  0  0  0
   -2.4319    0.5982   -0.2508 C   0  0  0  0  0  0  0  0  0  0  0  0
   -3.0827    0.1110   -1.5018 C   0  0  0  0  0  0  0  0  0  0  0  0
   -2.8727    0.4809   -2.8172 C   0  0  0  0  0  0  0  0  0  0  0  0
   -3.7172   -0.1804   -3.6679 N   0  0  0  0  0  0  0  0  0  0  0  0
   -4.4350   -0.9714   -2.8981 C   0  0  0  0  0  0  0  0  0  0  0  0
   -5.4774   -1.8884   -3.2136 C   0  0  0  0  0  0  0  0  0  0  0  0
   -6.0678   -2.5983   -2.2314 C   0  0  0  0  0  0  0  0  0  0  0  0
   -5.6595   -2.4575   -0.8432 C   0  0  0  0  0  0  0  0  0  0  0  0
   -4.6812   -1.5876   -0.5351 C   0  0  0  0  0  0  0  0  0  0  0  0
   -4.0764   -0.8478   -1.5543 N   0  0  0  0  0  0  0  0  0  0  0  0
    1.0433   -0.4263    1.0157 C   0  0  0  0  0  0  0  0  0  0  0  0
    1.3751   -1.5216    0.2033 C   0  0  0  0  0  0  0  0  0  0  0  0
    2.6372   -2.1361    0.2601 C   0  0  0  0  0  0  0  0  0  0  0  0
    3.6224   -1.6699    1.1276 C   0  0  0  0  0  0  0  0  0  0  0  0
    3.3171   -0.5715    1.9310 C   0  0  0  0  0  0  0  0  0  0  0  0
    2.0544    0.0414    1.8701 C   0  0  0  0  0  0  0  0  0  0  0  0
    4.9365   -2.2854    1.1942 C   0  0  0  0  0  0  0  0  0  0  0  0
    5.8779   -2.3509    2.2488 C   0  0  0  0  0  0  0  0  0  0  0  0
    7.0007   -2.9878    1.9027 N   0  0  0  0  0  0  0  0  0  0  0  0
    6.7850   -3.3307    0.6244 N   0  0  0  0  0  0  0  0  0  0  0  0
    5.5713   -2.9244    0.1484 C   0  0  0  0  0  0  0  0  0  0  0  0
    0.8486    2.7905   -0.0985 C   0  0  0  0  0  0  0  0  0  0  0  0
    1.1495    6.1621   -0.5172 H   0  0  0  0  0  0  0  0  0  0  0  0
   -0.3393    6.1427    1.4617 H   0  0  0  0  0  0  0  0  0  0  0  0
   -1.0665    4.0017    2.4445 H   0  0  0  0  0  0  0  0  0  0  0  0
   -1.5522    1.5732    1.8534 H   0  0  0  0  0  0  0  0  0  0  0  0
   -0.0508    1.3838    2.6773 H   0  0  0  0  0  0  0  0  0  0  0  0
   -2.0117    1.5857   -0.4632 H   0  0  0  0  0  0  0  0  0  0  0  0
   -3.1697    0.7094    0.5502 H   0  0  0  0  0  0  0  0  0  0  0  0
   -2.1582    1.2050   -3.1947 H   0  0  0  0  0  0  0  0  0  0  0  0
   -5.7772   -1.9939   -4.2473 H   0  0  0  0  0  0  0  0  0  0  0  0
   -6.8628   -3.3019   -2.4572 H   0  0  0  0  0  0  0  0  0  0  0  0
   -6.1476   -3.0631   -0.0860 H   0  0  0  0  0  0  0  0  0  0  0  0
   -4.3245   -1.4451    0.4780 H   0  0  0  0  0  0  0  0  0  0  0  0
    0.6765   -1.9300   -0.5238 H   0  0  0  0  0  0  0  0  0  0  0  0
    2.8232   -2.9882   -0.3894 H   0  0  0  0  0  0  0  0  0  0  0  0
    4.0613   -0.1542    2.6044 H   0  0  0  0  0  0  0  0  0  0  0  0
    1.9172    0.9010    2.5163 H   0  0  0  0  0  0  0  0  0  0  0  0
    5.7905   -1.9660    3.2524 H   0  0  0  0  0  0  0  0  0  0  0  0
    7.5133   -3.8382    0.1318 H   0  0  0  0  0  0  0  0  0  0  0  0
    5.2844   -3.1176   -0.8735 H   0  0  0  0  0  0  0  0  0  0  0  0
    1.2035    1.8699   -0.5569 H   0  0  0  0  0  0  0  0  0  0  0  0
  1  2  1  0
  2  3  2  0
  3  4  1  0
  4  5  2  0
  5  6  1  0
  6  7  1  0
  7  8  1  0
  8  9  1  0
  9 10  2  0
  9 11  1  0
 11 12  1  0
 12 13  2  0
 13 14  1  0
 14 15  2  0
 15 16  1  0
 16 17  2  0
 17 18  1  0
 18 19  2  0
 19 20  1  0
  8 21  1  0
 21 22  2  0
 22 23  1  0
 23 24  2  0
 24 25  1  0
 25 26  2  0
 24 27  1  0
 27 28  1  0
 28 29  2  0
 29 30  1  0
 30 31  1  0
  6 32  2  0
 32  2  1  0
 20 12  1  0
 26 21  1  0
 31 27  2  0
 20 15  1  0
  3 33  1  0
  4 34  1  0
  5 35  1  0
  7 36  1  0
  7 37  1  0
 11 38  1  0
 11 39  1  0
 13 40  1  0
 16 41  1  0
 17 42  1  0
 18 43  1  0
 19 44  1  0
 22 45  1  0
 23 46  1  0
 25 47  1  0
 26 48  1  0
 28 49  1  0
 30 50  1  0
 31 51  1  0
 32 52  1  0
M  END
>  <IC50 (nM)>  (3) 
Compound 4"

>  <cluster>  (3) 
1146.0

>  <Column_4>  (3) 
4

>  <ScrubInfo>  (3) 
{"isomerGroup": 2, "isomerId": 0, "confId": 0, "nr_conformers:": 1, "nr_isomers:": 1}

$$$$
"US20240293380_i0
     RDKit          3D

 54 58  0  0  0  0  0  0  0  0999 V2000
   -0.2004    5.8123    2.2410 F   0  0  0  0  0  0  0  0  0  0  0  0
    0.4339    5.2095    1.2271 C   0  0  0  0  0  0  0  0  0  0  0  0
    1.7752    5.4883    1.0023 C   0  0  0  0  0  0  0  0  0  0  0  0
    2.4269    4.8537   -0.0492 C   0  0  0  0  0  0  0  0  0  0  0  0
    4.0906    5.1796   -0.3441 Cl  0  0  0  0  0  0  0  0  0  0  0  0
    1.7443    3.9526   -0.8703 C   0  0  0  0  0  0  0  0  0  0  0  0
    0.3861    3.6747   -0.6458 C   0  0  0  0  0  0  0  0  0  0  0  0
   -0.3533    2.6782   -1.5135 C   0  0  0  0  0  0  0  0  0  0  0  0
   -0.4200    1.3380   -0.9132 N   0  0  0  0  0  0  0  0  0  0  0  0
   -1.5825    1.0036   -0.2099 C   0  0  0  0  0  0  0  0  0  0  0  0
   -2.4552    1.8409    0.0375 O   0  0  0  0  0  0  0  0  0  0  0  0
   -1.7821   -0.4637    0.1803 C   0  0  0  0  0  0  0  0  0  0  0  0
   -3.1733   -1.0313   -0.0484 C   0  0  0  0  0  0  0  0  0  0  0  0
   -3.9992   -0.5153   -1.0506 C   0  0  0  0  0  0  0  0  0  0  0  0
   -5.2256   -0.9865   -1.3594 N   0  0  0  0  0  0  0  0  0  0  0  0
   -5.6655   -2.0331   -0.6328 C   0  0  0  0  0  0  0  0  0  0  0  0
   -4.9372   -2.6600    0.3769 C   0  0  0  0  0  0  0  0  0  0  0  0
   -5.4594   -3.7647    1.0738 C   0  0  0  0  0  0  0  0  0  0  0  0
   -4.7127   -4.3985    2.0637 C   0  0  0  0  0  0  0  0  0  0  0  0
   -3.4383   -3.9368    2.3630 C   0  0  0  0  0  0  0  0  0  0  0  0
   -2.9126   -2.8365    1.6785 C   0  0  0  0  0  0  0  0  0  0  0  0
   -3.6484   -2.1609    0.6748 C   0  0  0  0  0  0  0  0  0  0  0  0
    0.7929    0.5887   -0.8527 C   0  0  0  0  0  0  0  0  0  0  0  0
    1.2490    0.0558    0.3576 C   0  0  0  0  0  0  0  0  0  0  0  0
    2.4524   -0.6565    0.4135 C   0  0  0  0  0  0  0  0  0  0  0  0
    3.2327   -0.8483   -0.7339 C   0  0  0  0  0  0  0  0  0  0  0  0
    2.7817   -0.3005   -1.9403 C   0  0  0  0  0  0  0  0  0  0  0  0
    1.5786    0.4164   -1.9975 C   0  0  0  0  0  0  0  0  0  0  0  0
    4.4766   -1.5981   -0.6343 C   0  0  0  0  0  0  0  0  0  0  0  0
    5.3701   -1.8665   -1.6507 C   0  0  0  0  0  0  0  0  0  0  0  0
    6.3734   -2.5939   -1.0678 N   0  0  0  0  0  0  0  0  0  0  0  0
    6.0649   -2.7368    0.2539 C   0  0  0  0  0  0  0  0  0  0  0  0
    4.9264   -2.1529    0.5454 N   0  0  0  0  0  0  0  0  0  0  0  0
   -0.2630    4.3140    0.4202 C   0  0  0  0  0  0  0  0  0  0  0  0
    2.2927    6.1891    1.6479 H   0  0  0  0  0  0  0  0  0  0  0  0
    2.2765    3.4608   -1.6818 H   0  0  0  0  0  0  0  0  0  0  0  0
    0.1071    2.6221   -2.5062 H   0  0  0  0  0  0  0  0  0  0  0  0
   -1.3670    3.0551   -1.6995 H   0  0  0  0  0  0  0  0  0  0  0  0
   -1.5364   -0.5069    1.2466 H   0  0  0  0  0  0  0  0  0  0  0  0
   -1.0993   -1.1132   -0.3755 H   0  0  0  0  0  0  0  0  0  0  0  0
   -3.6949    0.3254   -1.6686 H   0  0  0  0  0  0  0  0  0  0  0  0
   -6.6610   -2.3755   -0.9043 H   0  0  0  0  0  0  0  0  0  0  0  0
   -6.4535   -4.1409    0.8429 H   0  0  0  0  0  0  0  0  0  0  0  0
   -5.1236   -5.2526    2.5954 H   0  0  0  0  0  0  0  0  0  0  0  0
   -2.8469   -4.4306    3.1303 H   0  0  0  0  0  0  0  0  0  0  0  0
   -1.9079   -2.5197    1.9459 H   0  0  0  0  0  0  0  0  0  0  0  0
    0.7101    0.2233    1.2864 H   0  0  0  0  0  0  0  0  0  0  0  0
    2.7888   -1.0536    1.3708 H   0  0  0  0  0  0  0  0  0  0  0  0
    3.3514   -0.4254   -2.8572 H   0  0  0  0  0  0  0  0  0  0  0  0
    1.2556    0.7992   -2.9615 H   0  0  0  0  0  0  0  0  0  0  0  0
    5.3932   -1.6166   -2.7012 H   0  0  0  0  0  0  0  0  0  0  0  0
    7.1992   -2.9545   -1.5257 H   0  0  0  0  0  0  0  0  0  0  0  0
    6.7006   -3.2709    0.9473 H   0  0  0  0  0  0  0  0  0  0  0  0
   -1.3115    4.1198    0.6355 H   0  0  0  0  0  0  0  0  0  0  0  0
  1  2  1  0
  2  3  2  0
  3  4  1  0
  4  5  1  0
  4  6  2  0
  6  7  1  0
  7  8  1  0
  8  9  1  0
  9 10  1  0
 10 11  2  0
 10 12  1  0
 12 13  1  0
 13 14  2  0
 14 15  1  0
 15 16  2  0
 16 17  1  0
 17 18  2  0
 18 19  1  0
 19 20  2  0
 20 21  1  0
 21 22  2  0
  9 23  1  0
 23 24  2  0
 24 25  1  0
 25 26  2  0
 26 27  1  0
 27 28  2  0
 26 29  1  0
 29 30  2  0
 30 31  1  0
 31 32  1  0
 32 33  2  0
  7 34  2  0
 34  2  1  0
 22 13  1  0
 28 23  1  0
 33 29  1  0
 22 17  1  0
  3 35  1  0
  6 36  1  0
  8 37  1  0
  8 38  1  0
 12 39  1  0
 12 40  1  0
 14 41  1  0
 16 42  1  0
 18 43  1  0
 19 44  1  0
 20 45  1  0
 21 46  1  0
 24 47  1  0
 25 48  1  0
 27 49  1  0
 28 50  1  0
 30 51  1  0
 31 52  1  0
 32 53  1  0
 34 54  1  0
M  END
>  <IC50 (nM)>  (4) 
Compound 12"

>  <cluster>  (4) 
15.0

>  <Column_4>  (4) 
0

>  <ScrubInfo>  (4) 
{"isomerGroup": 3, "isomerId": 0, "confId": 0, "nr_conformers:": 1, "nr_isomers:": 2}

$$$$
"US20240293380_i1
     RDKit          3D

 54 58  0  0  0  0  0  0  0  0999 V2000
    4.0796   -3.3102    2.9582 N   0  0  0  0  0  0  0  0  0  0  0  0
    4.9749   -4.2863    3.2878 C   0  0  0  0  0  0  0  0  0  0  0  0
    5.6182   -4.7235    2.2326 N   0  0  0  0  0  0  0  0  0  0  0  0
    5.1124   -4.0020    1.1819 C   0  0  0  0  0  0  0  0  0  0  0  0
    4.1476   -3.1010    1.5983 C   0  0  0  0  0  0  0  0  0  0  0  0
    3.3257   -2.1435    0.8651 C   0  0  0  0  0  0  0  0  0  0  0  0
    2.8931   -0.9513    1.4551 C   0  0  0  0  0  0  0  0  0  0  0  0
    2.1070   -0.0385    0.7384 C   0  0  0  0  0  0  0  0  0  0  0  0
    1.7214   -0.2994   -0.5801 C   0  0  0  0  0  0  0  0  0  0  0  0
    0.9314    0.6373   -1.3157 N   0  0  0  0  0  0  0  0  0  0  0  0
    1.2840    2.0624   -1.2239 C   0  0  0  0  0  0  0  0  0  0  0  0
    0.3319    2.8532   -0.3476 C   0  0  0  0  0  0  0  0  0  0  0  0
    0.7796    3.4419    0.8434 C   0  0  0  0  0  0  0  0  0  0  0  0
   -0.1051    4.1542    1.6502 C   0  0  0  0  0  0  0  0  0  0  0  0
    0.3423    4.6943    2.7913 F   0  0  0  0  0  0  0  0  0  0  0  0
   -1.4373    4.3121    1.2969 C   0  0  0  0  0  0  0  0  0  0  0  0
   -1.8864    3.7519    0.1071 C   0  0  0  0  0  0  0  0  0  0  0  0
   -3.5311    3.9493   -0.3583 Cl  0  0  0  0  0  0  0  0  0  0  0  0
   -1.0134    3.0334   -0.7145 C   0  0  0  0  0  0  0  0  0  0  0  0
    0.0460    0.2668   -2.3313 C   0  0  0  0  0  0  0  0  0  0  0  0
   -0.1857    0.9935   -3.3019 O   0  0  0  0  0  0  0  0  0  0  0  0
   -0.7463   -1.0273   -2.1421 C   0  0  0  0  0  0  0  0  0  0  0  0
   -2.2311   -0.7484   -2.0609 C   0  0  0  0  0  0  0  0  0  0  0  0
   -2.9859   -0.8072   -3.2331 C   0  0  0  0  0  0  0  0  0  0  0  0
   -4.3080   -0.5572   -3.3041 N   0  0  0  0  0  0  0  0  0  0  0  0
   -4.9128   -0.1996   -2.1513 C   0  0  0  0  0  0  0  0  0  0  0  0
   -4.2708   -0.0853   -0.9179 C   0  0  0  0  0  0  0  0  0  0  0  0
   -4.9687    0.3057    0.2391 C   0  0  0  0  0  0  0  0  0  0  0  0
   -4.3107    0.4228    1.4611 C   0  0  0  0  0  0  0  0  0  0  0  0
   -2.9518    0.1472    1.5393 C   0  0  0  0  0  0  0  0  0  0  0  0
   -2.2504   -0.2450    0.3956 C   0  0  0  0  0  0  0  0  0  0  0  0
   -2.8883   -0.3689   -0.8615 C   0  0  0  0  0  0  0  0  0  0  0  0
    2.1698   -1.4855   -1.1749 C   0  0  0  0  0  0  0  0  0  0  0  0
    2.9603   -2.3954   -0.4612 C   0  0  0  0  0  0  0  0  0  0  0  0
    3.4565   -2.8454    3.6021 H   0  0  0  0  0  0  0  0  0  0  0  0
    5.1094   -4.6353    4.3030 H   0  0  0  0  0  0  0  0  0  0  0  0
    5.4754   -4.1651    0.1751 H   0  0  0  0  0  0  0  0  0  0  0  0
    3.1729   -0.7002    2.4753 H   0  0  0  0  0  0  0  0  0  0  0  0
    1.7796    0.8589    1.2516 H   0  0  0  0  0  0  0  0  0  0  0  0
    1.2804    2.5143   -2.2238 H   0  0  0  0  0  0  0  0  0  0  0  0
    2.3165    2.1660   -0.8667 H   0  0  0  0  0  0  0  0  0  0  0  0
    1.8156    3.3570    1.1599 H   0  0  0  0  0  0  0  0  0  0  0  0
   -2.1038    4.8721    1.9436 H   0  0  0  0  0  0  0  0  0  0  0  0
   -1.3900    2.6156   -1.6470 H   0  0  0  0  0  0  0  0  0  0  0  0
   -0.4508   -1.5933   -1.2567 H   0  0  0  0  0  0  0  0  0  0  0  0
   -0.5249   -1.6781   -2.9973 H   0  0  0  0  0  0  0  0  0  0  0  0
   -2.5271   -1.0596   -4.1866 H   0  0  0  0  0  0  0  0  0  0  0  0
   -5.9754    0.0065   -2.2521 H   0  0  0  0  0  0  0  0  0  0  0  0
   -6.0323    0.5299    0.1907 H   0  0  0  0  0  0  0  0  0  0  0  0
   -4.8586    0.7320    2.3472 H   0  0  0  0  0  0  0  0  0  0  0  0
   -2.4324    0.2394    2.4896 H   0  0  0  0  0  0  0  0  0  0  0  0
   -1.1893   -0.4473    0.5069 H   0  0  0  0  0  0  0  0  0  0  0  0
    1.9513   -1.7119   -2.2157 H   0  0  0  0  0  0  0  0  0  0  0  0
    3.2858   -3.3061   -0.9603 H   0  0  0  0  0  0  0  0  0  0  0  0
  1  2  1  0
  2  3  2  0
  3  4  1  0
  4  5  2  0
  5  6  1  0
  6  7  2  0
  7  8  1  0
  8  9  2  0
  9 10  1  0
 10 11  1  0
 11 12  1  0
 12 13  2  0
 13 14  1  0
 14 15  1  0
 14 16  2  0
 16 17  1  0
 17 18  1  0
 17 19  2  0
 10 20  1  0
 20 21  2  0
 20 22  1  0
 22 23  1  0
 23 24  2  0
 24 25  1  0
 25 26  2  0
 26 27  1  0
 27 28  2  0
 28 29  1  0
 29 30  2  0
 30 31  1  0
 31 32  2  0
  9 33  1  0
 33 34  2  0
  5  1  1  0
 34  6  1  0
 19 12  1  0
 32 23  1  0
 32 27  1  0
  1 35  1  0
  2 36  1  0
  4 37  1  0
  7 38  1  0
  8 39  1  0
 11 40  1  0
 11 41  1  0
 13 42  1  0
 16 43  1  0
 19 44  1  0
 22 45  1  0
 22 46  1  0
 24 47  1  0
 26 48  1  0
 28 49  1  0
 29 50  1  0
 30 51  1  0
 31 52  1  0
 33 53  1  0
 34 54  1  0
M  END
>  <IC50 (nM)>  (5) 
Compound 12"

>  <cluster>  (5) 
15.0

>  <Column_4>  (5) 
0

>  <ScrubInfo>  (5) 
{"isomerGroup": 3, "isomerId": 1, "confId": 0, "nr_conformers:": 1, "nr_isomers:": 2}

$$$$
"US20240293380
     RDKit          3D

 74 78  0  0  0  0  0  0  0  0999 V2000
   -4.7022   -4.4206   -1.9348 C   0  0  0  0  0  0  0  0  0  0  0  0
   -4.5621   -3.7415   -3.2617 N   0  0  0  0  0  0  0  0  0  0  0  0
   -3.4560   -2.7333   -3.1207 C   0  0  0  0  0  0  0  0  0  0  0  0
   -3.7914   -3.6849   -1.0212 C   0  0  0  0  0  0  0  0  0  0  0  0
   -3.1004   -2.7319   -1.6686 C   0  0  0  0  0  0  0  0  0  0  0  0
   -2.0958   -1.8334   -1.0851 C   0  0  0  0  0  0  0  0  0  0  0  0
   -2.1373   -1.5063    0.2791 C   0  0  0  0  0  0  0  0  0  0  0  0
   -1.0758   -1.2690   -1.8708 C   0  0  0  0  0  0  0  0  0  0  0  0
   -1.1744   -0.6693    0.8502 C   0  0  0  0  0  0  0  0  0  0  0  0
   -0.1060   -0.4345   -1.3003 C   0  0  0  0  0  0  0  0  0  0  0  0
   -0.1505   -0.1434    0.0620 C   0  0  0  0  0  0  0  0  0  0  0  0
    0.8603    0.6861    0.6350 N   0  0  0  0  0  0  0  0  0  0  0  0
    1.7802   -0.0050    1.5897 C   0  0  0  0  0  0  0  0  0  0  0  0
    0.4001    1.9493    1.0858 C   0  0  0  0  0  0  0  0  0  0  0  0
    2.0345   -1.5078    1.2363 C   0  0  0  0  0  0  0  0  0  0  0  0
    3.1382    0.7099    1.7041 C   0  0  0  0  0  0  0  0  0  0  0  0
    0.6105    2.3701    2.2244 O   0  0  0  0  0  0  0  0  0  0  0  0
   -0.2835    2.7893    0.0024 C   0  0  0  0  0  0  0  0  0  0  0  0
    2.6542   -1.7311    0.0165 N   0  0  0  0  0  0  0  0  0  0  0  0
    1.7004   -2.4124    1.9991 O   0  0  0  0  0  0  0  0  0  0  0  0
    3.9195    0.5379    2.8587 C   0  0  0  0  0  0  0  0  0  0  0  0
    3.6604    1.5018    0.6668 C   0  0  0  0  0  0  0  0  0  0  0  0
   -0.9438    4.0469    0.5118 C   0  0  0  0  0  0  0  0  0  0  0  0
    3.0920   -3.0453   -0.4774 C   0  0  0  0  0  0  0  0  0  0  0  0
    5.1722    1.1421    2.9615 C   0  0  0  0  0  0  0  0  0  0  0  0
    4.9123    2.1016    0.7963 C   0  0  0  0  0  0  0  0  0  0  0  0
   -0.1250    5.1360    0.8234 C   0  0  0  0  0  0  0  0  0  0  0  0
   -2.3441    4.1964    0.6883 C   0  0  0  0  0  0  0  0  0  0  0  0
    1.9165   -4.0283   -0.5801 C   0  0  0  0  0  0  0  0  0  0  0  0
    4.1920   -3.6274    0.4228 C   0  0  0  0  0  0  0  0  0  0  0  0
    3.6630   -2.8451   -1.8944 C   0  0  0  0  0  0  0  0  0  0  0  0
    5.9115    0.9434    4.0568 F   0  0  0  0  0  0  0  0  0  0  0  0
    5.6788    1.9277    1.9382 C   0  0  0  0  0  0  0  0  0  0  0  0
    5.3857    2.8376   -0.2183 F   0  0  0  0  0  0  0  0  0  0  0  0
   -0.5715    6.3377    1.2375 N   0  0  0  0  0  0  0  0  0  0  0  0
   -3.2983    3.1771    0.4505 C   0  0  0  0  0  0  0  0  0  0  0  0
   -2.8321    5.4505    1.1256 C   0  0  0  0  0  0  0  0  0  0  0  0
   -1.9076    6.4658    1.3795 C   0  0  0  0  0  0  0  0  0  0  0  0
   -4.6679    3.3994    0.6220 C   0  0  0  0  0  0  0  0  0  0  0  0
   -4.2119    5.6627    1.2940 C   0  0  0  0  0  0  0  0  0  0  0  0
   -5.1247    4.6432    1.0383 C   0  0  0  0  0  0  0  0  0  0  0  0
   -5.7510   -4.3505   -1.6277 H   0  0  0  0  0  0  0  0  0  0  0  0
   -4.4054   -5.4664   -2.0612 H   0  0  0  0  0  0  0  0  0  0  0  0
   -4.3484   -4.4199   -4.0006 H   0  0  0  0  0  0  0  0  0  0  0  0
   -5.4415   -3.2677   -3.5052 H   0  0  0  0  0  0  0  0  0  0  0  0
   -3.8426   -1.7737   -3.4741 H   0  0  0  0  0  0  0  0  0  0  0  0
   -2.6274   -3.0812   -3.7446 H   0  0  0  0  0  0  0  0  0  0  0  0
   -3.6875   -3.9423    0.0282 H   0  0  0  0  0  0  0  0  0  0  0  0
   -2.9134   -1.8990    0.9340 H   0  0  0  0  0  0  0  0  0  0  0  0
   -0.9810   -1.4871   -2.9317 H   0  0  0  0  0  0  0  0  0  0  0  0
   -1.2224   -0.4500    1.9164 H   0  0  0  0  0  0  0  0  0  0  0  0
    0.6884   -0.0292   -1.9227 H   0  0  0  0  0  0  0  0  0  0  0  0
    1.2975    0.0147    2.5785 H   0  0  0  0  0  0  0  0  0  0  0  0
    0.4936    3.0760   -0.7207 H   0  0  0  0  0  0  0  0  0  0  0  0
   -0.9992    2.1972   -0.5673 H   0  0  0  0  0  0  0  0  0  0  0  0
    3.0828   -0.9207   -0.4150 H   0  0  0  0  0  0  0  0  0  0  0  0
    3.5699   -0.0732    3.6873 H   0  0  0  0  0  0  0  0  0  0  0  0
    3.1151    1.6694   -0.2556 H   0  0  0  0  0  0  0  0  0  0  0  0
    0.9582    5.0700    0.7460 H   0  0  0  0  0  0  0  0  0  0  0  0
    2.2206   -4.9473   -1.0946 H   0  0  0  0  0  0  0  0  0  0  0  0
    1.5377   -4.3229    0.4063 H   0  0  0  0  0  0  0  0  0  0  0  0
    1.0808   -3.5942   -1.1401 H   0  0  0  0  0  0  0  0  0  0  0  0
    5.0256   -2.9255    0.5346 H   0  0  0  0  0  0  0  0  0  0  0  0
    4.6002   -4.5563   -0.0015 H   0  0  0  0  0  0  0  0  0  0  0  0
    3.8224   -3.8606    1.4291 H   0  0  0  0  0  0  0  0  0  0  0  0
    2.8964   -2.4399   -2.5676 H   0  0  0  0  0  0  0  0  0  0  0  0
    4.0255   -3.7880   -2.3217 H   0  0  0  0  0  0  0  0  0  0  0  0
    4.5028   -2.1380   -1.8818 H   0  0  0  0  0  0  0  0  0  0  0  0
    6.6533    2.3847    2.0266 H   0  0  0  0  0  0  0  0  0  0  0  0
   -2.9905    2.1842    0.1349 H   0  0  0  0  0  0  0  0  0  0  0  0
   -2.2262    7.4469    1.7216 H   0  0  0  0  0  0  0  0  0  0  0  0
   -5.3805    2.6007    0.4296 H   0  0  0  0  0  0  0  0  0  0  0  0
   -4.5853    6.6291    1.6322 H   0  0  0  0  0  0  0  0  0  0  0  0
   -6.1885    4.8189    1.1729 H   0  0  0  0  0  0  0  0  0  0  0  0
  1  2  1  0
  2  3  1  0
  4  1  1  0
  5  4  2  0
  6  5  1  0
  3  5  1  0
  7  6  2  0
  6  8  1  0
  9  7  1  0
  8 10  2  0
 11  9  2  0
 10 11  1  0
 12 11  1  0
 13 12  1  0
 12 14  1  0
 15 13  1  0
 13 16  1  0
 14 17  2  0
 14 18  1  0
 19 15  1  0
 15 20  2  0
 16 21  2  0
 22 16  1  0
 18 23  1  0
 24 19  1  0
 21 25  1  0
 26 22  2  0
 23 27  2  0
 28 23  1  0
 29 24  1  0
 24 30  1  0
 24 31  1  0
 25 32  1  0
 25 33  2  0
 33 26  1  0
 26 34  1  0
 27 35  1  0
 36 28  2  0
 28 37  1  0
 35 38  2  0
 39 36  1  0
 38 37  1  0
 37 40  2  0
 41 39  2  0
 40 41  1  0
  1 42  1  0
  1 43  1  0
  2 44  1  0
  2 45  1  0
  3 46  1  0
  3 47  1  0
  4 48  1  0
  7 49  1  0
  8 50  1  0
  9 51  1  0
 10 52  1  0
 13 53  1  0
 18 54  1  0
 18 55  1  0
 19 56  1  0
 21 57  1  0
 22 58  1  0
 27 59  1  0
 29 60  1  0
 29 61  1  0
 29 62  1  0
 30 63  1  0
 30 64  1  0
 30 65  1  0
 31 66  1  0
 31 67  1  0
 31 68  1  0
 33 69  1  0
 36 70  1  0
 38 71  1  0
 39 72  1  0
 40 73  1  0
 41 74  1  0
M  CHG  1   2   1
M  END
>  <IC50 (nM)>  (6) 
Compound 63"

>  <cluster>  (6) 
1027.0

>  <Column_4>  (6) 
2

>  <ScrubInfo>  (6) 
{"isomerGroup": 4, "isomerId": 0, "confId": 0, "nr_conformers:": 1, "nr_isomers:": 1}

$$$$
