6 ENGINEERED: YES
     RDKit          3D

 52 56  0  0  0  0  0  0  0  0999 V2000
   -3.0180   -3.1477   -0.8246 C   0  0  0  0  0  0  0  0  0  0  0  0
   -1.6567   -3.2788   -0.7721 N   0  0  0  0  0  0  0  0  0  0  0  0
   -1.5847    1.1821    0.4736 N   0  0  0  0  0  0  0  0  0  0  0  0
   -1.6386    3.6061    0.6966 C   0  0  0  0  0  0  0  0  0  0  0  0
   -0.2168    0.8530    0.2777 C   0  0  0  0  0  0  0  0  0  0  0  0
    2.5078    0.2491   -0.1188 C   0  0  0  0  0  0  0  0  0  0  0  0
   -0.4258    4.3500    0.5006 C   0  0  0  0  0  0  0  0  0  0  0  0
   -0.2799    5.3775    1.4057 C   0  0  0  0  0  0  0  0  0  0  0  0
   -2.3610    4.1260    1.7564 C   0  0  0  0  0  0  0  0  0  0  0  0
   -2.4279    0.5139    1.3602 C   0  0  0  0  0  0  0  0  0  0  0  0
   -2.0698   -0.8948    1.7952 C   0  0  0  0  0  0  0  0  0  0  0  0
   -3.4367   -2.2240    0.1262 C   0  0  0  0  0  0  0  0  0  0  0  0
   -4.7793   -1.8786    0.3135 C   0  0  0  0  0  0  0  0  0  0  0  0
   -5.7131   -2.5130   -0.5146 C   0  0  0  0  0  0  0  0  0  0  0  0
   -5.3172   -3.4445   -1.4780 C   0  0  0  0  0  0  0  0  0  0  0  0
   -3.9660   -3.7738   -1.6458 C   0  0  0  0  0  0  0  0  0  0  0  0
   -2.0647    2.4272   -0.1355 C   0  0  0  0  0  0  0  0  0  0  0  0
    0.6540    0.7467    1.3654 C   0  0  0  0  0  0  0  0  0  0  0  0
    2.0069    0.4461    1.1679 C   0  0  0  0  0  0  0  0  0  0  0  0
    4.8798   -0.2313    0.5001 C   0  0  0  0  0  0  0  0  0  0  0  0
    6.1640   -0.6088   -0.1558 C   0  0  0  0  0  0  0  0  0  0  0  0
    6.9050   -1.8400    0.3130 C   0  0  0  0  0  0  0  0  0  0  0  0
    6.2647   -1.8290   -1.0430 C   0  0  0  0  0  0  0  0  0  0  0  0
    1.6376    0.3749   -1.2078 C   0  0  0  0  0  0  0  0  0  0  0  0
    0.2880    0.6875   -1.0134 C   0  0  0  0  0  0  0  0  0  0  0  0
   -2.2609   -1.8336    0.7129 N   0  0  0  0  0  0  0  0  0  0  0  0
   -1.2020   -2.4782    0.1830 N   0  0  0  0  0  0  0  0  0  0  0  0
    3.8485   -0.0765   -0.3989 N   0  0  0  0  0  0  0  0  0  0  0  0
   -3.5030    0.9991    1.7334 O   0  0  0  0  0  0  0  0  0  0  0  0
    4.8576   -0.0685    1.7100 O   0  0  0  0  0  0  0  0  0  0  0  0
   -1.5944    5.4644    2.4925 S   0  0  0  0  0  0  0  0  0  0  0  0
    0.3106    4.1317   -0.2642 H   0  0  0  0  0  0  0  0  0  0  0  0
    0.5377    6.0809    1.4834 H   0  0  0  0  0  0  0  0  0  0  0  0
   -3.3094    3.7728    2.1414 H   0  0  0  0  0  0  0  0  0  0  0  0
   -2.7419   -1.1974    2.6068 H   0  0  0  0  0  0  0  0  0  0  0  0
   -1.0555   -0.9840    2.1838 H   0  0  0  0  0  0  0  0  0  0  0  0
   -5.0931   -1.1528    1.0577 H   0  0  0  0  0  0  0  0  0  0  0  0
   -6.7696   -2.2743   -0.4045 H   0  0  0  0  0  0  0  0  0  0  0  0
   -6.0664   -3.9219   -2.1058 H   0  0  0  0  0  0  0  0  0  0  0  0
   -3.6530   -4.4972   -2.3905 H   0  0  0  0  0  0  0  0  0  0  0  0
   -1.6849    2.5234   -1.1587 H   0  0  0  0  0  0  0  0  0  0  0  0
   -3.1585    2.4030   -0.2149 H   0  0  0  0  0  0  0  0  0  0  0  0
    0.3087    0.9350    2.3791 H   0  0  0  0  0  0  0  0  0  0  0  0
    2.6436    0.3745    2.0446 H   0  0  0  0  0  0  0  0  0  0  0  0
    6.7851    0.2467   -0.4031 H   0  0  0  0  0  0  0  0  0  0  0  0
    6.4498   -2.4433    1.0916 H   0  0  0  0  0  0  0  0  0  0  0  0
    7.9858   -1.7853    0.3730 H   0  0  0  0  0  0  0  0  0  0  0  0
    6.9155   -1.7764   -1.9083 H   0  0  0  0  0  0  0  0  0  0  0  0
    5.3912   -2.4571   -1.1810 H   0  0  0  0  0  0  0  0  0  0  0  0
    1.9917    0.2210   -2.2239 H   0  0  0  0  0  0  0  0  0  0  0  0
   -0.3655    0.7487   -1.8795 H   0  0  0  0  0  0  0  0  0  0  0  0
    4.0808   -0.2304   -1.3711 H   0  0  0  0  0  0  0  0  0  0  0  0
  1  2  1  0
  1 12  2  0
  1 16  1  0
  2 27  2  0
  3  5  1  0
  3 10  1  0
  3 17  1  0
  4  7  1  0
  4  9  2  0
  4 17  1  0
  5 18  2  0
  5 25  1  0
  6 19  2  0
  6 24  1  0
  6 28  1  0
  7  8  2  0
  8 31  1  0
  9 31  1  0
 10 11  1  0
 10 29  2  0
 11 26  1  0
 12 13  1  0
 12 26  1  0
 13 14  2  0
 14 15  1  0
 15 16  2  0
 18 19  1  0
 20 21  1  0
 20 28  1  0
 20 30  2  0
 21 22  1  0
 21 23  1  0
 22 23  1  0
 24 25  2  0
 26 27  1  0
  7 32  1  0
  8 33  1  0
  9 34  1  0
 11 35  1  0
 11 36  1  0
 13 37  1  0
 14 38  1  0
 15 39  1  0
 16 40  1  0
 17 41  1  0
 17 42  1  0
 18 43  1  0
 19 44  1  0
 21 45  1  0
 22 46  1  0
 22 47  1  0
 23 48  1  0
 23 49  1  0
 24 50  1  0
 25 51  1  0
 28 52  1  0
M  END
>  <ScrubInfo>  (1) 
{"isomerGroup": 0, "isomerId": 0, "confId": 0, "nr_conformers:": 1, "nr_isomers:": 1}

$$$$
